data/Solina.m
function mpc = Solina
%% MATPOWER Case Format : Version 2
mpc.version = '2';

%%-----  Power Flow Data  -----%%
%% system MVA base
mpc.baseMVA = 100;

%% bus data
%	bus_i	type	Pd	Qd	Gs	Bs	area	Vm	Va	baseKV	zone	Vmax	Vmin	lam_P	lam_Q	mu_Vmax	mu_Vmin
mpc.bus = [
    792	3	0	0	0	0	1	1.00	0	110	2	1.12	0.95	98.1266	-0.3436	0.0000	0.0000;
    665	1	0	0	0	0	1	1.00	0	110	2	1.12	0.95	96.4711	0.0002	0.0000	0.0000;
    49	1	0	0	0	0	1	1.00	0	400	2	1.05	0.95	95.6169	-0.6759	0.0000	0.0000;
    48	1	0	0	0	0	1	1.00	0	400	2	1.05	0.95	95.6142	-0.6768	0.0000	0.0000;
    65	1	0	0	0	0	1	1.00	0	400	2	1.05	0.95	94.8501	-0.9534	0.0000	0.0000;
    64	1	0	0	0	0	1	1.00	0	400	2	1.05	0.95	94.8460	-0.9549	0.0000	0.0000;
    58	1	0	0	0	0	1	1.00	0	400	2	1.05	0.95	94.4716	-1.2215	0.0000	0.0000;
    54	1	0	0	0	0	1	1.00	0	400	2	1.05	0.95	94.6638	-1.0834	0.0000	0.0000;
    53	1	0	0	0	0	1	1.00	0	400	2	1.05	0.95	94.6640	-1.0822	0.0000	0.0000;
    43	2	1	0	0	0	1	1.00	0	220	2	1.11	0.95	94.2528	-0.6891	0.0000	0.0000;
	44	2	0	0	0	0	1	1.00	0	220	2	1.11	0.95	94.2488	-0.6908	0.0000	0.0000;
	45	2	0	0	0	0	1	1.00	0	400	2	1.05	0.95	94.5600	-0.5862	0.0000	0.0000;
	46	1	0	0	0	0	1	1.00	0	400	2	1.05	0.95	94.5595	-0.5865	0.0000	0.0000;

];

%% generator data
%	bus	Pg	Qg	Qmax	Qmin	Vg	mBase	status	Pmax	Pmin	Pc1	Pc2	Qc1min	Qc1max	Qc2min	Qc2max	ramp_agc	ramp_10	ramp_30	ramp_q	apf
mpc.gen = [
    792	0	0	23	0	1.00	71.8	1	68.7	0	0	0	0	0	0	0	0	0	0	0	0	0.0000	0.0000	0.0000	0.0000;
	792	0	0	23	0	1.00	71.8	1	68.7	0	0	0	0	0	0	0	0	0	0	0	0	0.0000	0.0000	0.0000	0.0000;
	792	0	0	11	0	1.00	23.7	1	32.8	0	0	0	0	0	0	0	0	0	0	0	0	0.0000	0.0000	0.0000	0.0000;
	792	0	0	10	0	1.00	23.3	1	29.8	0	0	0	0	0	0	0	0	0	0	0	0	0.0000	0.0000	0.0000	0.0000;
	43	0	0	120	-20	1.00	246.2	0	215	135	0	0	0	0	0	0	0	0	0	0	0	0.0000	7.7972	0.0000	0.6891;
	43	0	0	120	-20	1.00	275.3	0	247.8	135	0	0	0	0	0	0	0	0	0	0	0	0.0000	0.0000	0.0000	0.0000;
	43	0	0	120	-20	1.00	275.3	0	247.8	135	0	0	0	0	0	0	0	0	0	0	0	0.0000	0.0000	0.0000	0.0000;
	44	0	0	120	-20	1.00	255.0	0	225	135	0	0	0	0	0	0	0	0	0	0	0	0.0000	7.8012	0.0000	0.6908;
	44	0	0	120	-20	1.00	255.0	0	225	135	0	0	0	0	0	0	0	0	0	0	0	0.0000	7.8012	0.0000	0.6908;
	44	0	0	120	-20	1.00	255.0	0	225	135	0	0	0	0	0	0	0	0	0	0	0	0.0000	0.0000	0.0000	0.0000;
	45	0	0	350	-40	1.00	610.3	0	500	350	0	0	0	0	0	0	0	0	0	0	0	0.0000	0.0000	0.0000	0.0000;
	45	0	0	350	-40	1.00	610.3	0	500	350	0	0	0	0	0	0	0	0	0	0	0	0.0000	7.4900	0.0000	0.5862;
];

%% branch data
%	fbus	tbus	r	x	b	rateA	rateB	rateC	ratio	angle	status	angmin	angmax	Pf	Qf	Pt	Qt	mu_Sf	mu_St	mu_angmin	mu_angmax
mpc.branch = [
    792	665	0.08066	0.21280	0.02198	173	173	173	0	0	1	-360	360	-23.2693	21.5026	23.2818	-20.9415	0.0000	0.0000	0.0000	0.0000;
    665	49	0.00135	0.06052	0	250	250	250	1.00	0	1	-360	360	-23.2693	21.5026	23.2818	-20.9415	0.0000	0.0000	0.0000	0.0000;
    49	48	6e-06	6.3e-05	0	1593	1593	1593	0	0	1	-360	360	-168.0606	-23.2579	168.0623	23.2749	0.0000	0.0000	0.0000	0.0000;
    48	65	0.00113	0.01406	0.37488	831	831	831	0	0	1	-360	360	-313.2957	-67.5605	314.3687	40.8390	0.0000	0.0000	0.0000	0.0000;
    65	64	6e-06	6.3e-05	0	1593	1593	1593	0	0	1	-360	360	-328.4789	-37.2579	328.4852	37.3211	0.0000	0.0000	0.0000	0.0000;
    64	58	0.00094	0.01097	0.29376	1552	1552	1552	0	0	1	-360	360	-209.7505	-1.1477	210.1353	-26.1123	0.0000	0.0000	0.0000	0.0000;
    58	54	0.00109	0.01277	0.34176	1358	1358	1358	0	0	1	-360	360	56.0421	2.1059	-56.0062	-38.5337	0.0000	0.0000	0.0000	0.0000;
    54	53	6e-06	6.3e-05	0	1593	1593	1593	0	0	1	-360	360	-3.6789	42.5224	3.6790	-42.5214	0.0000	0.0000	0.0000	0.0000;
    53	45	0.00176	0.02144	0.57344	1358	1358	1358	0	0	1	-360	360	-62.6245	-4.9449	62.6996	-55.5314	0.0000	0.0000	0.0000	0.0000;
    44	43	2.1e-05	0.000207	0	876	876	876	0	0	1	-360	360	151.7164	-43.0051	-151.7121	43.0477	0.0000	0.0000	0.0000	0.0000;
    43	46	0.00034	0.02097	0	500	500	500	1.0733	0	1	-360	360	-7.1846	-44.4992	7.1912	44.9060	0.0000	0.0000	0.0000	0.0000;
    46	45	6e-06	6.3e-05	0	1593	1593	1593	0	0	1	-360	360	-56.0612	-34.6372	56.0615	34.6397	0.0000	0.0000	0.0000	0.0000;
];

%%-----  OPF Data  -----%%
%% generator cost data
%	1	startup	shutdown	n	x1	y1	...	xn	yn
%	2	startup	shutdown	n	c(n-1)	...	c0
mpc.gencost = [
	2	0	0	3	0	112.78	0;
	2	0	0	3	0	112.78	0;
    2	0	0	3	0	112.78	0;
	2	0	0	3	0	112.78	0;
    2	0	0	3	0	112.78	0;
	2	0	0	3	0	112.78	0;
    2	0	0	3	0	112.78	0;
	2	0	0	3	0	112.78	0;
    2	0	0	3	0	112.78	0;
	2	0	0	3	0	112.78	0;
    2	0	0	3	0	112.78	0;
	2	0	0	3	0	112.78	0;
];
